Version 4
SHEET 1 880 680
WIRE -240 -48 -464 -48
WIRE -224 -48 -240 -48
WIRE -96 -48 -224 -48
WIRE 192 -48 -96 -48
WIRE 192 -16 192 -48
WIRE -96 48 -96 -48
WIRE 48 48 -96 48
WIRE 384 48 336 48
WIRE -464 64 -464 -48
WIRE 384 64 384 48
WIRE 384 144 384 128
WIRE 384 144 336 144
WIRE 560 144 384 144
WIRE 688 144 640 144
WIRE 48 240 -224 240
WIRE 688 240 688 144
WIRE 688 240 336 240
WIRE -224 272 -224 240
WIRE 48 336 -16 336
WIRE 384 336 336 336
WIRE 464 336 384 336
WIRE 640 336 464 336
WIRE 672 336 640 336
WIRE 688 336 672 336
WIRE 384 352 384 336
WIRE 464 352 464 336
WIRE 640 400 640 336
WIRE -224 432 -224 336
WIRE -128 432 -224 432
WIRE 48 432 -48 432
WIRE 384 432 384 416
WIRE 384 432 336 432
WIRE 464 432 384 432
WIRE 464 464 464 432
WIRE -224 512 -224 432
WIRE -16 512 -16 400
WIRE -16 512 -224 512
WIRE 192 512 192 496
WIRE 192 512 -16 512
WIRE 192 544 192 512
WIRE 464 560 464 544
WIRE 640 560 640 464
WIRE 640 560 464 560
WIRE 464 592 464 560
FLAG -464 144 0
FLAG 192 544 0
FLAG 464 592 0
FLAG 672 336 Vout
FLAG -224 -48 Vin
FLAG -240 16 0
SYMBOL PowerProducts\\LT8630 192 240 R0
SYMATTR InstName U1
SYMBOL voltage -464 48 R0
WINDOW 123 0 0 Left 0
WINDOW 39 0 0 Left 0
SYMATTR InstName V1
SYMATTR Value 100V
SYMBOL cap -240 272 R0
SYMATTR InstName C1
SYMATTR Value 2.2µ
SYMBOL res -32 416 R90
WINDOW 0 0 56 VBottom 2
WINDOW 3 32 56 VTop 2
SYMATTR InstName R1
SYMATTR Value 8.66k
SYMBOL cap 368 352 R0
SYMATTR InstName C2
SYMATTR Value 10p
SYMBOL res 448 336 R0
SYMATTR InstName R2
SYMATTR Value 1000k
SYMBOL res 448 448 R0
SYMATTR InstName R3
SYMATTR Value 71.5k
SYMBOL cap -32 336 R0
SYMATTR InstName C3
SYMATTR Value 0.1µ
SYMBOL cap 368 64 R0
SYMATTR InstName C4
SYMATTR Value 0.1µ
SYMBOL ind 544 160 R270
WINDOW 0 32 56 VTop 2
WINDOW 3 5 56 VBottom 2
SYMATTR InstName L1
SYMATTR Value 22µ
SYMBOL cap 624 400 R0
SYMATTR InstName C5
SYMATTR Value 47µ
SYMBOL cap -256 -48 R0
SYMATTR InstName C6
SYMATTR Value 0.2µ
TEXT -498 616 Left 2 !.tran 1s startup uic
