Version 4
SHEET 1 880 680
WIRE -1232 -64 -1328 -64
WIRE -1024 -64 -1232 -64
WIRE -816 -64 -1024 -64
WIRE -1024 -48 -1024 -64
WIRE -816 -32 -816 -64
WIRE -192 -32 -816 -32
WIRE -32 -32 -192 -32
WIRE 144 -32 -32 -32
WIRE 272 -32 144 -32
WIRE 592 -32 272 -32
WIRE 752 -32 592 -32
WIRE -192 -16 -192 -32
WIRE -32 16 -32 -32
WIRE 144 32 144 -32
WIRE 272 32 272 -32
WIRE 592 32 592 -32
WIRE 752 32 752 -32
WIRE -608 64 -688 64
WIRE -448 64 -608 64
WIRE -240 64 -368 64
WIRE -1024 96 -1024 32
WIRE -192 96 -192 64
WIRE -112 96 -192 96
WIRE -192 112 -192 96
WIRE 400 112 336 112
WIRE -528 144 -528 128
WIRE -320 160 -496 160
WIRE -832 176 -976 176
WIRE -816 176 -832 176
WIRE -688 176 -736 176
WIRE -560 176 -688 176
WIRE 400 176 336 176
WIRE -480 192 -496 192
WIRE -448 192 -480 192
WIRE -608 208 -608 64
WIRE -528 208 -608 208
WIRE -240 224 -240 64
WIRE -192 224 -192 176
WIRE -192 224 -240 224
WIRE -112 224 -192 224
WIRE -1232 240 -1232 16
WIRE -448 240 -448 192
WIRE -320 240 -320 160
WIRE 400 240 336 240
WIRE -624 256 -688 256
WIRE -480 256 -480 192
WIRE -480 256 -560 256
WIRE -192 256 -192 224
WIRE -1232 368 -1232 304
WIRE -1232 368 -1328 368
WIRE -1024 368 -1024 192
WIRE -1024 368 -1232 368
WIRE -832 368 -832 256
WIRE -832 368 -1024 368
WIRE -448 368 -448 320
WIRE -448 368 -832 368
WIRE -416 368 -448 368
WIRE -320 368 -320 320
WIRE -320 368 -336 368
WIRE -192 368 -192 320
WIRE -192 368 -320 368
WIRE -32 368 -32 80
WIRE -32 368 -192 368
WIRE 208 368 208 320
WIRE 208 368 -32 368
WIRE 400 368 400 240
WIRE 400 368 208 368
WIRE 592 368 592 112
WIRE 592 368 400 368
WIRE 752 368 752 112
WIRE 752 368 592 368
FLAG -112 224 Sense
FLAG -112 96 SW1
FLAG 400 176 Sense
FLAG 400 112 SW1
FLAG -688 128 0
FLAG -1328 -64 BATT+
FLAG -1328 368 BATT-
FLAG -528 128 0
FLAG -1376 112 BATT+
FLAG -1376 192 BATT-
SYMBOL PowerProducts\\LT1073-12 208 176 R0
SYMATTR InstName U1
SYMBOL OpAmps\\LT1078 -528 240 R180
SYMATTR InstName U2
SYMBOL res 576 16 R0
SYMATTR InstName R1
SYMATTR Value 200
SYMATTR SpiceLine pwr=2
SYMBOL current 752 112 R180
WINDOW 0 24 80 Left 2
WINDOW 3 24 0 Left 2
WINDOW 123 0 0 Left 0
WINDOW 39 0 0 Left 0
SYMATTR InstName I1
SYMATTR Value 1
SYMBOL polcap -48 16 R0
SYMATTR InstName C1
SYMATTR Value 47
SYMBOL ZZZ\\ZENER\\Zener_DiodesInc\\1N5221B -208 112 R0
SYMATTR InstName U3
SYMBOL ind -208 -32 R0
SYMATTR InstName L1
SYMATTR Value 120
SYMBOL polcap -208 256 R0
SYMATTR InstName C2
SYMATTR Value 47
SYMBOL res -336 224 R0
SYMATTR InstName R2
SYMATTR Value 1k
SYMBOL res -464 224 R0
SYMATTR InstName R3
SYMATTR Value 1k
SYMBOL res -320 352 R90
WINDOW 0 0 56 VBottom 2
WINDOW 3 32 56 VTop 2
SYMATTR InstName R4
SYMATTR Value 0.1
SYMATTR SpiceLine pwr=2
SYMBOL res -352 48 R90
WINDOW 0 0 56 VBottom 2
WINDOW 3 32 56 VTop 2
SYMATTR InstName R5
SYMATTR Value 10
SYMBOL cap -704 64 R0
SYMATTR InstName C3
SYMATTR Value 0.1
SYMBOL res -704 160 R0
SYMATTR InstName R6
SYMATTR Value 10k
SYMBOL cap -560 240 R90
WINDOW 0 0 32 VBottom 2
WINDOW 3 32 32 VTop 2
SYMATTR InstName C4
SYMATTR Value 0.1
SYMBOL res -720 160 R90
WINDOW 0 0 56 VBottom 2
WINDOW 3 32 56 VTop 2
SYMATTR InstName R7
SYMATTR Value 1k
SYMBOL res -816 272 R180
WINDOW 0 36 76 Left 2
WINDOW 3 36 40 Left 2
SYMATTR InstName R8
SYMATTR Value 100k
SYMBOL nmos -976 96 M0
SYMATTR InstName M1
SYMBOL res -1040 -64 R0
SYMATTR InstName R9
SYMATTR Value 1
SYMATTR SpiceLine pwr=2
SYMBOL res -1248 -80 R0
SYMATTR InstName R10
SYMATTR Value 0.1
SYMATTR SpiceLine pwr=2
SYMBOL polcap -1248 240 R0
SYMATTR InstName C5
SYMATTR Value 4700
SYMBOL res -1392 96 R0
SYMATTR InstName R11
SYMATTR Value 100
TEXT -1424 430 Left 2 !.tran 100s uic
