Version 4
SHEET 1 880 680
WIRE -272 144 -384 144
WIRE -224 144 -272 144
WIRE -32 144 -144 144
WIRE 80 144 -32 144
WIRE 448 144 336 144
WIRE 624 144 448 144
WIRE 640 144 624 144
WIRE -32 176 -32 144
WIRE -384 208 -384 144
WIRE -272 240 -272 144
WIRE 208 272 208 240
WIRE 448 272 448 224
WIRE 448 272 208 272
WIRE 448 304 448 272
WIRE 208 336 208 272
WIRE -384 400 -384 288
WIRE -368 400 -384 400
WIRE -272 400 -272 320
WIRE -272 400 -368 400
WIRE -32 400 -32 240
WIRE -32 400 -272 400
WIRE 208 400 -32 400
WIRE 448 400 208 400
WIRE 480 400 480 352
WIRE 480 400 448 400
WIRE 640 400 640 208
WIRE 640 400 480 400
FLAG -368 400 0
FLAG -384 144 vin
FLAG 624 144 vout
SYMBOL ZZZ\\VolReg\\LM317-TI 208 144 R0
SYMATTR InstName U1
SYMBOL cap -48 176 R0
SYMATTR InstName C1
SYMATTR Value 0.1
SYMBOL res -128 128 R90
WINDOW 0 0 56 VBottom 2
WINDOW 3 32 56 VTop 2
SYMATTR InstName R1
SYMATTR Value 22
SYMBOL cap 192 336 R0
SYMATTR InstName C2
SYMATTR Value 1µ
SYMBOL pot 448 352 R180
SYMATTR InstName U2
SYMATTR Value2 T=1
SYMBOL res 432 128 R0
SYMATTR InstName R2
SYMATTR Value 380
SYMBOL cap 624 144 R0
SYMATTR InstName C3
SYMATTR Value 100µ
SYMBOL voltage -384 192 R0
WINDOW 123 0 0 Left 0
WINDOW 39 0 0 Left 0
SYMATTR InstName V1
SYMATTR Value 12
SYMBOL res -288 224 R0
SYMATTR InstName R3
SYMATTR Value 1k
TEXT -418 424 Left 2 !.tran 2s
