Version 4
SHEET 1 2048 1432
WIRE 704 624 320 624
WIRE 816 624 800 624
WIRE 848 624 816 624
WIRE 1504 624 944 624
WIRE 1504 704 1504 624
WIRE 320 720 320 624
WIRE 1728 736 1728 624
WIRE 1504 816 1504 784
WIRE -416 848 -608 848
WIRE -384 848 -416 848
WIRE -240 848 -304 848
WIRE 816 944 816 624
WIRE 816 944 672 944
WIRE 944 944 816 944
WIRE -608 960 -608 928
WIRE -240 960 -608 960
WIRE -432 1216 -624 1216
WIRE -400 1216 -432 1216
WIRE -176 1216 -320 1216
WIRE -624 1328 -624 1296
WIRE -176 1328 -624 1328
FLAG 0 848 Charge+
FLAG 0 960 Charge-
FLAG -416 848 Vin
FLAG -432 1216 Vin
FLAG 64 1216 Discharge+
FLAG 64 1328 Discharge-
FLAG 320 800 0
FLAG 1504 816 0
FLAG 784 672 Discharge+
FLAG 944 944 Discharge-
FLAG 1728 816 0
FLAG 864 672 Discharge+
FLAG 320 624 VBatt
FLAG 1504 624 VLoad
SYMBOL nmos 704 672 R270
SYMATTR InstName M2
SYMATTR Value IRF1310N
SYMBOL Misc\\battery 320 704 R0
WINDOW 123 0 0 Left 0
WINDOW 39 24 132 Left 2
SYMATTR SpiceLine Rser=0.32
SYMATTR InstName V2
SYMATTR Value 60
SYMBOL res 1488 688 R0
SYMATTR InstName R2
SYMATTR Value 60
SYMBOL nmos 944 672 M270
SYMATTR InstName M3
SYMATTR Value IRF1310N
SYMBOL ZZZ\\OPTO\\VOM1271 -144 912 R0
SYMATTR InstName U1
SYMBOL voltage -608 832 R0
WINDOW 123 0 0 Left 0
WINDOW 39 0 0 Left 0
SYMATTR InstName V3
SYMATTR Value PULSE(0 3.3 0 0 0 0.05 0.1 5)
SYMBOL res -288 832 R90
WINDOW 0 0 56 VBottom 2
WINDOW 3 32 56 VTop 2
SYMATTR InstName R3
SYMATTR Value 130
SYMBOL res -304 1200 R90
WINDOW 0 0 56 VBottom 2
WINDOW 3 32 56 VTop 2
SYMATTR InstName R4
SYMATTR Value 130
SYMBOL ZZZ\\OPTO\\VOM1271 -80 1280 R0
SYMATTR InstName U3
SYMBOL voltage -624 1200 R0
WINDOW 123 0 0 Left 0
WINDOW 39 0 0 Left 0
SYMATTR InstName V1
SYMATTR Value PULSE(0 3.3 0 0 0 0.05 0.1)
SYMBOL voltage 1728 720 R0
WINDOW 123 0 0 Left 0
WINDOW 39 24 124 Left 2
SYMATTR SpiceLine Rser=5
SYMATTR InstName V4
SYMATTR Value PULSE(0 60 0.45 0 0 1 1)
TEXT -544 1416 Left 2 !.tran 1s uic
