Version 4
SHEET 1 1568 680
WIRE 1008 0 848 0
WIRE 1168 0 1104 0
WIRE 1344 0 1168 0
WIRE 848 48 848 0
WIRE 1088 48 976 48
WIRE 64 144 -128 144
WIRE 96 144 64 144
WIRE 256 144 176 144
WIRE 320 144 256 144
WIRE 976 144 976 48
WIRE 976 144 560 144
WIRE 1008 144 1008 0
WIRE 1104 144 1104 0
WIRE 976 192 976 144
WIRE 1088 192 976 192
WIRE 1344 224 1344 0
WIRE -128 256 -128 224
WIRE 320 256 -128 256
WIRE 1168 256 1168 0
WIRE 1168 256 560 256
WIRE 848 384 848 128
WIRE 1056 384 848 384
WIRE 1344 384 1344 304
WIRE 1344 384 1056 384
FLAG 64 144 Vin
FLAG 256 144 optoIN
FLAG 1056 384 0
SYMBOL voltage -128 128 R0
WINDOW 123 0 0 Left 0
WINDOW 39 0 0 Left 0
SYMATTR InstName V1
SYMATTR Value PULSE(0 3.3 0 0 0 0.05 0.1)
SYMBOL res 192 128 R90
WINDOW 0 0 56 VBottom 2
WINDOW 3 32 56 VTop 2
SYMATTR InstName R1
SYMATTR Value 130
SYMBOL ZZZ\\OPTO\\VOM1271 416 208 R0
SYMATTR InstName U2
SYMBOL nmos 1008 192 R270
SYMATTR InstName M2
SYMATTR Value IRF1310N
SYMBOL Misc\\battery 848 32 R0
WINDOW 123 0 0 Left 0
WINDOW 39 24 132 Left 2
SYMATTR InstName V2
SYMATTR Value 60
SYMBOL nmos 1008 48 R270
SYMATTR InstName M1
SYMATTR Value IRF1310N
SYMBOL res 1328 208 R0
SYMATTR InstName R2
SYMATTR Value 60
TEXT -48 344 Left 2 !.tran 1s uic
