Version 4
SHEET 1 880 680
WIRE 208 96 0 96
WIRE 448 96 304 96
WIRE 576 96 448 96
WIRE 0 144 0 96
WIRE 576 160 576 96
WIRE 288 192 288 144
WIRE 448 192 448 160
WIRE 448 192 288 192
WIRE 288 208 288 192
WIRE 0 304 0 224
WIRE 288 304 288 288
WIRE 288 304 0 304
WIRE 576 304 576 240
WIRE 576 304 288 304
WIRE 0 320 0 304
FLAG 0 320 0
SYMBOL voltage 0 128 R0
WINDOW 123 0 0 Left 0
WINDOW 39 0 0 Left 0
SYMATTR InstName V1
SYMATTR Value 40
SYMBOL pmos 208 144 R270
SYMATTR InstName M1
SYMATTR Value IRF7343P
SYMBOL zener 464 160 R180
WINDOW 0 24 64 Left 2
WINDOW 3 24 0 Left 2
SYMATTR InstName D1
SYMATTR Value BZX84C10L
SYMBOL res 272 192 R0
SYMATTR InstName R1
SYMATTR Value 100k
SYMBOL res 560 144 R0
SYMATTR InstName R2
SYMATTR Value 10
TEXT -34 344 Left 2 !.tran 1s
