Version 4
SHEET 1 1700 680
WIRE 1632 32 1440 32
WIRE 832 48 720 48
WIRE 1024 48 912 48
WIRE 1152 48 1024 48
WIRE 1440 48 1440 32
WIRE 1440 48 1408 48
WIRE 144 64 48 64
WIRE 304 64 224 64
WIRE 48 112 48 64
WIRE 1632 112 1520 112
WIRE 304 128 304 64
WIRE 448 128 352 128
WIRE 576 128 448 128
WIRE 672 128 576 128
WIRE 720 128 720 48
WIRE 352 144 352 128
WIRE 672 144 672 128
WIRE 1024 144 1024 48
WIRE 1280 160 1280 144
WIRE 1520 160 1520 112
WIRE 1520 160 1280 160
WIRE 1280 176 1280 160
WIRE 352 208 352 192
WIRE 448 208 352 208
WIRE 512 208 448 208
WIRE 576 208 512 208
WIRE 672 208 672 192
WIRE 672 208 576 208
WIRE 48 256 48 192
WIRE 304 256 304 208
WIRE 304 256 48 256
WIRE 720 272 720 208
WIRE 1024 272 1024 208
WIRE 1024 272 720 272
WIRE 1280 272 1280 240
WIRE 1280 272 1024 272
WIRE 1632 272 1632 192
WIRE 1632 272 1280 272
FLAG 512 208 0
SYMBOL voltage 48 96 R0
WINDOW 123 0 0 Left 0
WINDOW 39 0 0 Left 0
SYMATTR InstName V1
SYMATTR Value 5
SYMBOL f 448 208 R180
WINDOW 0 24 80 Left 2
WINDOW 3 24 0 Left 2
SYMATTR InstName F1
SYMATTR Value E1,1
SYMBOL e 304 112 M0
SYMATTR InstName E1
SYMATTR Value 1
SYMBOL f 576 208 R180
WINDOW 0 24 80 Left 2
WINDOW 3 24 0 Left 2
SYMATTR InstName F2
SYMATTR Value E2,1
SYMBOL e 720 112 R0
SYMATTR InstName E2
SYMATTR Value 1
SYMBOL res 240 48 R90
WINDOW 0 0 56 VBottom 2
WINDOW 3 32 56 VTop 2
SYMATTR InstName R1
SYMATTR Value 10
SYMBOL polcap 1008 144 R0
SYMATTR InstName C1
SYMATTR Value 10µ
SYMBOL res 1616 16 R0
SYMATTR InstName R3
SYMATTR Value 10k
SYMBOL res 1616 96 R0
SYMATTR InstName R4
SYMATTR Value 10k
SYMBOL ZZZ\\VolReg\\LM317-1 1280 48 R0
SYMATTR InstName U1
SYMBOL polcap 1264 176 R0
SYMATTR InstName C2
SYMATTR Value 10µ
SYMBOL res 928 32 R90
WINDOW 0 0 56 VBottom 2
WINDOW 3 32 56 VTop 2
SYMATTR InstName R2
SYMATTR Value 10
TEXT -274 344 Left 2 !.tran 1s uic
